/*----------------*- C++ -*----------------*/
FoamFile
{
    version     2.0;
    format      ascii;
    class       dictionary;
    object      blockMeshDict;
}
// * * * * * * * * * * * * * * * * * * * //

convertToMeters 1;

vertices
(
(0.00 0.00 0.00) // 0
(45.00 0.00 0.00) // 1
(55.00 0.00 0.00) // 2
(100.00 0.00 0.00) // 3
(0.00 45.00 0.00) // 4
(45.00 45.00 0.00) // 5
(55.00 45.00 0.00) // 6
(100.00 45.00 0.00) // 7
(0.00 55.00 0.00) // 8
(45.00 55.00 0.00) // 9
(55.00 55.00 0.00) // 10
(100.00 55.00 0.00) // 11
(0.00 100.00 0.00) // 12
(45.00 100.00 0.00) // 13
(55.00 100.00 0.00) // 14
(100.00 100.00 0.00) // 15
(0.00 0.00 50.00) // 16
(45.00 0.00 50.00) // 17
(55.00 0.00 50.00) // 18
(100.00 0.00 50.00) // 19
(0.00 45.00 50.00) // 20
(45.00 45.00 50.00) // 21
(55.00 45.00 50.00) // 22
(100.00 45.00 50.00) // 23
(0.00 55.00 50.00) // 24
(45.00 55.00 50.00) // 25
(55.00 55.00 50.00) // 26
(100.00 55.00 50.00) // 27
(0.00 100.00 50.00) // 28
(45.00 100.00 50.00) // 29
(55.00 100.00 50.00) // 30
(100.00 100.00 50.00) // 31

);

blocks
(
    hex (0 1 5 4 16 17 21 20) (40 40 30) simpleGrading (1 1 1.000000)
    hex (1 2 6 5 17 18 22 21) (20 40 30) simpleGrading (1 1 1.000000)
    hex (2 3 7 6 18 19 23 22) (40 40 30) simpleGrading (1 1 1.000000)
    hex (4 5 9 8 20 21 25 24) (40 20 30) simpleGrading (1 1 1.000000)
    hex (5 6 10 9 21 22 26 25) (20 20 30) simpleGrading (1 1 1.000000)
    hex (6 7 11 10 22 23 27 26) (40 20 30) simpleGrading (1 1 1.000000)
    hex (8 9 13 12 24 25 29 28) (40 40 30) simpleGrading (1 1 1.000000)
    hex (9 10 14 13 25 26 30 29) (20 40 30) simpleGrading (1 1 1.000000)
    hex (10 11 15 14 26 27 31 30) (40 40 30) simpleGrading (1 1 1.000000)
);

edges
();

boundary
(
    inlet
    {
        type patch;
        faces
        (
            (5 9 10 6)
        );
    }
    ground
    {
        type wall;
        faces
        (
            (0 4 5 1)
            (1 5 6 2)
            (2 6 7 3)
            (4 8 9 5)
            (6 10 11 7)
            (8 12 13 9)
            (9 13 14 10)
            (10 14 15 11)
        );
    }
    atmosphere
    {
        type patch;
        faces
        (
            (16 17 21 20)
            (17 18 22 21)
            (18 19 23 22)
            (20 21 25 24)
            (21 22 26 25)
            (22 23 27 26)
            (24 25 29 28)
            (25 26 30 29)
            (26 27 31 30)
        );
    }
    walls
    {
        type wall;
        faces
        (
            (0 1 17 16)
            (1 2 18 17)
            (2 3 19 18)
            (12 28 29 13)
            (13 29 30 14)
            (14 30 31 15)
            (0 16 20 4)
            (4 20 24 8)
            (8 24 28 12)
            (3 7 23 19)
            (7 11 27 23)
            (11 15 31 27)
        );
    }
);

mergePatchPairs
(
);
